Version 4
SHEET 1 2752 896
WIRE -1824 -400 -1824 -448
WIRE -1824 -352 -1824 -400
WIRE -1824 -304 -1824 -352
WIRE -1824 -240 -1824 -304
WIRE -1824 -208 -1824 -240
WIRE -1824 -112 -1824 -208
WIRE -1824 -64 -1824 -112
WIRE -1824 -16 -1824 -64
WIRE -1824 112 -1824 -16
WIRE -1648 112 -1664 112
WIRE -1584 112 -1648 112
WIRE -1648 176 -1824 176
WIRE -1584 176 -1648 176
WIRE -1824 224 -1824 176
WIRE -1728 224 -1824 224
WIRE -1664 224 -1728 224
WIRE -1664 256 -1664 224
WIRE -2384 288 -2512 288
WIRE -2080 320 -2240 320
WIRE -2032 320 -2080 320
WIRE -1808 320 -1952 320
WIRE -1728 336 -1728 224
WIRE -1728 336 -1744 336
WIRE -2384 352 -2560 352
WIRE -1808 352 -1824 352
WIRE -2560 368 -2560 352
WIRE -2512 464 -2512 288
WIRE -2080 464 -2080 384
WIRE -2080 464 -2512 464
WIRE -2016 464 -2080 464
WIRE -1824 464 -1824 352
WIRE -1824 464 -1936 464
WIRE -1664 464 -1664 320
WIRE -1664 464 -1824 464
WIRE -1824 592 -1824 464
FLAG -2560 448 0
FLAG -1824 672 0
FLAG -1824 -608 0
FLAG -1888 -208 0
FLAG -1760 -240 0
FLAG -1888 -16 0
FLAG -1888 -112 0
FLAG -1760 -64 0
FLAG -2352 480 0
FLAG -2352 160 0
FLAG -1760 -352 0
FLAG -1888 -400 0
FLAG -1888 -304 0
SYMBOL voltage -2560 352 R0
WINDOW 0 -69 56 Left 2
WINDOW 3 -67 152 Left 2
WINDOW 123 0 0 Left 2
WINDOW 39 0 0 Left 2
SYMATTR InstName V1
SYMATTR Value PULSE(-0.5 2.5 0 5n 5n 4u 8u)
SYMBOL res -1840 576 R0
SYMATTR InstName R1
SYMATTR Value 2.5
SYMATTR SpiceLine tol=1 pwr=35W
SYMBOL LED -1600 112 R0
SYMATTR InstName D1
SYMATTR Value PT-121-B
SYMBOL voltage -1824 -512 R180
WINDOW 0 32 56 VTop 2
WINDOW 3 -32 56 VBottom 2
WINDOW 123 0 0 Left 2
WINDOW 39 63 35 VTop 2
SYMATTR InstName V3
SYMATTR Value 12
SYMATTR SpiceLine Rser=0.001
SYMBOL res -1920 448 R90
WINDOW 0 0 56 VBottom 2
WINDOW 3 32 56 VTop 2
SYMATTR InstName R8
SYMATTR Value 140
SYMATTR SpiceLine tol=1 pwr=0.1
SYMBOL cap -2096 320 R0
SYMATTR InstName C1
SYMATTR Value 0.0022µ
SYMATTR SpiceLine V=25 Irms=140m Rser=200m Lser=477p
SYMBOL res -1936 304 R90
WINDOW 0 0 56 VBottom 2
WINDOW 3 32 56 VTop 2
SYMATTR InstName R5
SYMATTR Value 100
SYMBOL cap -1824 -224 R270
WINDOW 0 32 32 VTop 2
WINDOW 3 0 32 VBottom 2
SYMATTR InstName C13
SYMATTR Value 47µ
SYMATTR SpiceLine V=25 Irms=8 Rser=0.005 Lser=1.591n
SYMBOL polcap -1824 -32 R90
WINDOW 0 0 32 VBottom 2
WINDOW 3 32 32 VTop 2
SYMATTR InstName C20
SYMATTR Value 7500µ
SYMATTR Description Capacitor
SYMATTR Type cap
SYMATTR SpiceLine V=50 Irms=3.8 Rser=0.033 Lser=30n
SYMBOL TVSdiode -1648 320 R180
WINDOW 0 24 64 Left 2
WINDOW 3 -147 19 Left 2
SYMATTR InstName D4
SYMATTR Value SMBJ24CA
SYMATTR Description Diode
SYMATTR Type diode
SYMBOL res -1840 128 R270
WINDOW 0 32 56 VTop 2
WINDOW 3 0 56 VBottom 2
SYMATTR InstName R2
SYMATTR Value 0.0047
SYMBOL ind -1648 96 R90
WINDOW 0 5 56 VBottom 2
WINDOW 3 32 56 VTop 2
SYMATTR InstName L2
SYMATTR Value 131n
SYMBOL cap -1664 112 R0
SYMATTR InstName C2
SYMATTR Value 208p
SYMBOL voltage -2352 496 R180
WINDOW 0 32 56 VTop 2
WINDOW 3 -32 56 VBottom 2
WINDOW 123 0 0 Left 2
WINDOW 39 63 35 VTop 2
SYMATTR InstName V2
SYMATTR Value 1.8
SYMATTR SpiceLine Rser=0.001
SYMBOL voltage -2352 256 R180
WINDOW 0 32 56 VTop 2
WINDOW 3 -32 56 VBottom 2
WINDOW 123 0 0 Left 2
WINDOW 39 63 35 VTop 2
SYMATTR InstName V4
SYMATTR Value 10
SYMATTR SpiceLine Rser=0.001
SYMBOL ind -1840 -544 R0
SYMATTR InstName L5
SYMATTR Value 10n
SYMATTR SpiceLine Rser=1m
SYMBOL OpAmps\\LT6200-10 -2352 320 R0
SYMATTR InstName U3
SYMBOL AutoGenerated\\SUM70060E -1776 336 M0
SYMATTR InstName U1
SYMBOL polcap -1824 -128 R90
WINDOW 0 0 32 VBottom 2
WINDOW 3 32 32 VTop 2
SYMATTR InstName C3
SYMATTR Value 7500µ
SYMATTR Description Capacitor
SYMATTR Type cap
SYMATTR SpiceLine V=50 Irms=3.8 Rser=0.033 Lser=30n
SYMBOL polcap -1824 -48 R270
WINDOW 0 32 32 VTop 2
WINDOW 3 0 32 VBottom 2
SYMATTR InstName C5
SYMATTR Value 7500µ
SYMATTR Description Capacitor
SYMATTR Type cap
SYMATTR SpiceLine V=50 Irms=3.8 Rser=0.033 Lser=30n
SYMBOL cap -1760 -368 R90
WINDOW 0 0 32 VBottom 2
WINDOW 3 32 32 VTop 2
SYMATTR InstName C6
SYMATTR Value 47µ
SYMATTR SpiceLine V=25 Irms=8 Rser=0.005 Lser=1.591n
SYMBOL cap -1888 -192 R270
WINDOW 0 32 32 VTop 2
WINDOW 3 0 32 VBottom 2
SYMATTR InstName C8
SYMATTR Value 47µ
SYMATTR SpiceLine V=25 Irms=8 Rser=0.005 Lser=1.591n
SYMBOL cap -1888 -288 R270
WINDOW 0 32 32 VTop 2
WINDOW 3 0 32 VBottom 2
SYMATTR InstName C9
SYMATTR Value 47µ
SYMATTR SpiceLine V=25 Irms=8 Rser=0.005 Lser=1.591n
SYMBOL cap -1888 -384 R270
WINDOW 0 32 32 VTop 2
WINDOW 3 0 32 VBottom 2
SYMATTR InstName C10
SYMATTR Value 47µ
SYMATTR SpiceLine V=25 Irms=8 Rser=0.005 Lser=1.591n
TEXT -1560 512 Left 2 !.tran 0 302u 294u
TEXT -1616 232 Left 2 ;1 meter of Cat5 cable - 4x twisted pair\nhttps://en.wikipedia.org/wiki/Category_5_cable
TEXT -2728 808 Left 2 ;Ref for split supply: http://www.analog.com/en/technical-articles/signal-level-shifting-with-module-regulator-for-positive-to-negative-inverting-applications.html
TEXT -2720 768 Left 2 !.include SUM70060E_PS_RC_Rev_A.LIB
TEXT -2736 584 Left 2 !*.options gmin=1e-9\n*.options abstol=1e-10\n*.options reltol=0.003\n*.options cshunt=1e-16
